SPU122_glm/Node_SPU122.glm
//**Nodes forSPU122:


object node {
	 name 391-1731909;
	 phases ABCN;
	 nominal_voltage 7970.00;
	 voltage_A 7970.00+0d;
	 voltage_B 7970.00-120.0d;
	 voltage_C 7970.00+120.0d;
	 bustype PQ;
}


object node {
	 name 391-559604;
	 phases ABCN;
	 nominal_voltage 7970.00;
	 voltage_A 7970.00+0d;
	 voltage_B 7970.00-120.0d;
	 voltage_C 7970.00+120.0d;
	 bustype PQ;
}


object node {
	 name 391-758992;
	 phases ABCN;
	 nominal_voltage 7970.00;
	 voltage_A 7970.00+0d;
	 voltage_B 7970.00-120.0d;
	 voltage_C 7970.00+120.0d;
	 bustype PQ;
}


object node {
	 name 393-72996;
	 phases ABCN;
	 nominal_voltage 7970.00;
	 voltage_A 7970.00+0d;
	 voltage_B 7970.00-120.0d;
	 voltage_C 7970.00+120.0d;
	 bustype PQ;
}


object node {
	 name 395-1373643;
	 phases AN;
	 nominal_voltage 7970.00;
	 voltage_A 7970.00+0d;
	 bustype PQ;
}


object node {
	 name 395-1373661;
	 phases BN;
	 nominal_voltage 7970.00;
	 voltage_B 7970.00-120.0d;
	 bustype PQ;
}


object node {
	 name 395-1373663;
	 phases CN;
	 nominal_voltage 7970.00;
	 voltage_C 7970.00+120.0d;
	 bustype PQ;
}


object node {
	 name 395-2135221;
	 phases AN;
	 nominal_voltage 7970.00;
	 voltage_A 7970.00+0d;
	 bustype PQ;
}


object node {
	 name 395-2135223;
	 phases BN;
	 nominal_voltage 7970.00;
	 voltage_B 7970.00-120.0d;
	 bustype PQ;
}


object node {
	 name 395-2135225;
	 phases CN;
	 nominal_voltage 7970.00;
	 voltage_C 7970.00+120.0d;
	 bustype PQ;
}


object node {
	 name 395-2135232;
	 phases AN;
	 nominal_voltage 7970.00;
	 voltage_A 7970.00+0d;
	 bustype PQ;
}


object node {
	 name 395-2135234;
	 phases BN;
	 nominal_voltage 7970.00;
	 voltage_B 7970.00-120.0d;
	 bustype PQ;
}


object node {
	 name 395-2135235;
	 phases ABCN;
	 nominal_voltage 7970.00;
	 voltage_A 7970.00+0d;
	 voltage_B 7970.00-120.0d;
	 voltage_C 7970.00+120.0d;
	 bustype PQ;
}


object node {
	 name 395-2135236;
	 phases CN;
	 nominal_voltage 7970.00;
	 voltage_C 7970.00+120.0d;
	 bustype PQ;
}


object node {
	 name 395-2147887;
	 phases AN;
	 nominal_voltage 7970.00;
	 voltage_A 7970.00+0d;
	 bustype PQ;
}


object node {
	 name 395-2147889;
	 phases BN;
	 nominal_voltage 7970.00;
	 voltage_B 7970.00-120.0d;
	 bustype PQ;
}


object node {
	 name 395-2147891;
	 phases CN;
	 nominal_voltage 7970.00;
	 voltage_C 7970.00+120.0d;
	 bustype PQ;
}


object node {
	 name 395-2147902;
	 phases ABCN;
	 nominal_voltage 7970.00;
	 voltage_A 7970.00+0d;
	 voltage_B 7970.00-120.0d;
	 voltage_C 7970.00+120.0d;
	 bustype PQ;
}


object node {
	 name 395-756992;
	 phases ABCN;
	 nominal_voltage 7970.00;
	 voltage_A 7970.00+0d;
	 voltage_B 7970.00-120.0d;
	 voltage_C 7970.00+120.0d;
	 bustype PQ;
}


object node {
	 name 402-458138;
	 phases ABCN;
	 nominal_voltage 7970.00;
	 voltage_A 7970.00+0d;
	 voltage_B 7970.00-120.0d;
	 voltage_C 7970.00+120.0d;
	 bustype PQ;
}


object node {
	 name 403-288844;
	 phases BN;
	 nominal_voltage 7970.00;
	 voltage_B 7970.00-120.0d;
	 bustype PQ;
}


object node {
	 name 403-474442;
	 phases ABCN;
	 nominal_voltage 7970.00;
	 voltage_A 7970.00+0d;
	 voltage_B 7970.00-120.0d;
	 voltage_C 7970.00+120.0d;
	 bustype PQ;
}


object node {
	 name 403-474444;
	 phases ABCN;
	 nominal_voltage 7970.00;
	 voltage_A 7970.00+0d;
	 voltage_B 7970.00-120.0d;
	 voltage_C 7970.00+120.0d;
	 bustype PQ;
}


object node {
	 name 406-1064707;
	 phases ABCN;
	 nominal_voltage 7970.00;
	 voltage_A 7970.00+0d;
	 voltage_B 7970.00-120.0d;
	 voltage_C 7970.00+120.0d;
	 bustype PQ;
}


object node {
	 name 416-14448;
	 phases ABCN;
	 nominal_voltage 7970.00;
	 voltage_A 7970.00+0d;
	 voltage_B 7970.00-120.0d;
	 voltage_C 7970.00+120.0d;
	 bustype PQ;
}


object node {
	 name 500-230142;
	 phases ABCN;
	 nominal_voltage 7970.00;
	 voltage_A 7970.00+0d;
	 voltage_B 7970.00-120.0d;
	 voltage_C 7970.00+120.0d;
	 bustype PQ;
}


object node {
	 name 500-635149;
	 phases AN;
	 nominal_voltage 7970.00;
	 voltage_A 7970.00+0d;
	 bustype PQ;
}


object node {
	 name 500-635151;
	 phases BN;
	 nominal_voltage 7970.00;
	 voltage_B 7970.00-120.0d;
	 bustype PQ;
}


object node {
	 name 500-635153;
	 phases CN;
	 nominal_voltage 7970.00;
	 voltage_C 7970.00+120.0d;
	 bustype PQ;
}


object node {
	 name MID-395-1373661;
	 phases ABCN;
	 nominal_voltage 7970.00;
	 voltage_A 7970.00+0d;
	 voltage_B 7970.00-120.0d;
	 voltage_C 7970.00+120.0d;
	 bustype PQ;
}


object node {
	 name MID-395-2135223;
	 phases ABCN;
	 nominal_voltage 7970.00;
	 voltage_A 7970.00+0d;
	 voltage_B 7970.00-120.0d;
	 voltage_C 7970.00+120.0d;
	 bustype PQ;
}


object node {
	 name MID-395-2135234;
	 phases ABCN;
	 nominal_voltage 7970.00;
	 voltage_A 7970.00+0d;
	 voltage_B 7970.00-120.0d;
	 voltage_C 7970.00+120.0d;
	 bustype PQ;
}


object node {
	 name MID-395-2147889;
	 phases ABCN;
	 nominal_voltage 7970.00;
	 voltage_A 7970.00+0d;
	 voltage_B 7970.00-120.0d;
	 voltage_C 7970.00+120.0d;
	 bustype PQ;
}


object node {
	 name SPU122;
	 phases ABCN;
	 nominal_voltage 7970.00;
	 voltage_A 7970.00+0d;
	 voltage_B 7970.00-120.0d;
	 voltage_C 7970.00+120.0d;
	 bustype SWING;
}


object node {
	 name Breaker_416-14448;
	 phases ABCN;
	 nominal_voltage 7970.00;
	 voltage_A 7970.00+0d;
	 voltage_B 7970.00-120.0d;
	 voltage_C 7970.00+120.0d;
	 bustype PQ;
}


object node {
	 name Fuse_402-458138;
	 phases ABCN;
	 nominal_voltage 7970.00;
	 voltage_A 7970.00+0d;
	 voltage_B 7970.00-120.0d;
	 voltage_C 7970.00+120.0d;
	 bustype PQ;
}


object node {
	 name Reg_SPU122;
	 phases ABCN;
	 nominal_voltage 7970.00;
	 voltage_A 7970.00+0d;
	 voltage_B 7970.00-120.0d;
	 voltage_C 7970.00+120.0d;
	 bustype PQ;
}


