SPU122_glm/OH_Line_Configuration_SPU122.glm
//**Overhead  Line configuration forSPU122:


object line_configuration {
	 name overhead_line_config_ABCN_104_104;
	 z11 0.406667+0.301667j;
	 z12 0.136667-0.024333j;
	 z13 0.136667-0.024333j;
	 z21 0.136667-0.024333j;
	 z22 0.406667+0.301667j;
	 z23 0.136667-0.024333j;
	 z31 0.136667-0.024333j;
	 z32 0.136667-0.024333j;
	 z33 0.406667+0.301667j;
	 }

object line_configuration {
	 name overhead_line_config_ABCN_105_105;
	 z11 0.345333+0.341000j;
	 z12 0.139333-0.004000j;
	 z13 0.139333-0.004000j;
	 z21 0.139333-0.004000j;
	 z22 0.345333+0.341000j;
	 z23 0.139333-0.004000j;
	 z31 0.139333-0.004000j;
	 z32 0.139333-0.004000j;
	 z33 0.345333+0.341000j;
	 }

object line_configuration {
	 name overhead_line_config_ABCN_108_108;
	 z11 0.345333+0.341000j;
	 z12 0.139333-0.004000j;
	 z13 0.139333-0.004000j;
	 z21 0.139333-0.004000j;
	 z22 0.345333+0.341000j;
	 z23 0.139333-0.004000j;
	 z31 0.139333-0.004000j;
	 z32 0.139333-0.004000j;
	 z33 0.345333+0.341000j;
	 }

object line_configuration {
	 name overhead_line_config_ABCN_39_90;
	 z11 0.345667+1.151733j;
	 z12 0.159667+0.506133j;
	 z13 0.159667+0.506133j;
	 z21 0.159667+0.506133j;
	 z22 0.345667+1.151733j;
	 z23 0.159667+0.506133j;
	 z31 0.159667+0.506133j;
	 z32 0.159667+0.506133j;
	 z33 0.345667+1.151733j;
	 }

object line_configuration {
	 name overhead_line_config_ABCN_86_86;
	 z11 0.311333+1.160667j;
	 z12 0.179333+0.505667j;
	 z13 0.179333+0.505667j;
	 z21 0.179333+0.505667j;
	 z22 0.311333+1.160667j;
	 z23 0.179333+0.505667j;
	 z31 0.179333+0.505667j;
	 z32 0.179333+0.505667j;
	 z33 0.311333+1.160667j;
	 }

object line_configuration {
	 name overhead_line_config_BN_97_97;
	 z11 2.618000+1.481733j;
	 z12 0.201000+0.637633j;
	 z13 0.201000+0.637633j;
	 z21 0.201000+0.637633j;
	 z22 2.618000+1.481733j;
	 z23 0.201000+0.637633j;
	 z31 0.201000+0.637633j;
	 z32 0.201000+0.637633j;
	 z33 2.618000+1.481733j;
	 }

