SPU122_glm/UG_Line_Configuration_SPU122.glm
//**Underground Line configuration forSPU122:


object line_configuration {
	 name underground_line_config_AN_104_104;
	 z11 0.406667+0.301667j;
	 z12 0.136667-0.024333j;
	 z13 0.136667-0.024333j;
	 z21 0.136667-0.024333j;
	 z22 0.406667+0.301667j;
	 z23 0.136667-0.024333j;
	 z31 0.136667-0.024333j;
	 z32 0.136667-0.024333j;
	 z33 0.406667+0.301667j;
	 }

object line_configuration {
	 name underground_line_config_AN_105_105;
	 z11 0.345333+0.341000j;
	 z12 0.139333-0.004000j;
	 z13 0.139333-0.004000j;
	 z21 0.139333-0.004000j;
	 z22 0.345333+0.341000j;
	 z23 0.139333-0.004000j;
	 z31 0.139333-0.004000j;
	 z32 0.139333-0.004000j;
	 z33 0.345333+0.341000j;
	 }

object line_configuration {
	 name underground_line_config_AN_108_108;
	 z11 0.345333+0.341000j;
	 z12 0.139333-0.004000j;
	 z13 0.139333-0.004000j;
	 z21 0.139333-0.004000j;
	 z22 0.345333+0.341000j;
	 z23 0.139333-0.004000j;
	 z31 0.139333-0.004000j;
	 z32 0.139333-0.004000j;
	 z33 0.345333+0.341000j;
	 }

object line_configuration {
	 name underground_line_config_AN_90_90;
	 z11 0.345667+1.151733j;
	 z12 0.159667+0.506133j;
	 z13 0.159667+0.506133j;
	 z21 0.159667+0.506133j;
	 z22 0.345667+1.151733j;
	 z23 0.159667+0.506133j;
	 z31 0.159667+0.506133j;
	 z32 0.159667+0.506133j;
	 z33 0.345667+1.151733j;
	 }

object line_configuration {
	 name underground_line_config_BN_104_104;
	 z11 0.406667+0.301667j;
	 z12 0.136667-0.024333j;
	 z13 0.136667-0.024333j;
	 z21 0.136667-0.024333j;
	 z22 0.406667+0.301667j;
	 z23 0.136667-0.024333j;
	 z31 0.136667-0.024333j;
	 z32 0.136667-0.024333j;
	 z33 0.406667+0.301667j;
	 }

object line_configuration {
	 name underground_line_config_BN_105_105;
	 z11 0.345333+0.341000j;
	 z12 0.139333-0.004000j;
	 z13 0.139333-0.004000j;
	 z21 0.139333-0.004000j;
	 z22 0.345333+0.341000j;
	 z23 0.139333-0.004000j;
	 z31 0.139333-0.004000j;
	 z32 0.139333-0.004000j;
	 z33 0.345333+0.341000j;
	 }

object line_configuration {
	 name underground_line_config_BN_108_108;
	 z11 0.345333+0.341000j;
	 z12 0.139333-0.004000j;
	 z13 0.139333-0.004000j;
	 z21 0.139333-0.004000j;
	 z22 0.345333+0.341000j;
	 z23 0.139333-0.004000j;
	 z31 0.139333-0.004000j;
	 z32 0.139333-0.004000j;
	 z33 0.345333+0.341000j;
	 }

object line_configuration {
	 name underground_line_config_BN_90_90;
	 z11 0.345667+1.151733j;
	 z12 0.159667+0.506133j;
	 z13 0.159667+0.506133j;
	 z21 0.159667+0.506133j;
	 z22 0.345667+1.151733j;
	 z23 0.159667+0.506133j;
	 z31 0.159667+0.506133j;
	 z32 0.159667+0.506133j;
	 z33 0.345667+1.151733j;
	 }

object line_configuration {
	 name underground_line_config_CN_104_104;
	 z11 0.406667+0.301667j;
	 z12 0.136667-0.024333j;
	 z13 0.136667-0.024333j;
	 z21 0.136667-0.024333j;
	 z22 0.406667+0.301667j;
	 z23 0.136667-0.024333j;
	 z31 0.136667-0.024333j;
	 z32 0.136667-0.024333j;
	 z33 0.406667+0.301667j;
	 }

object line_configuration {
	 name underground_line_config_CN_105_105;
	 z11 0.345333+0.341000j;
	 z12 0.139333-0.004000j;
	 z13 0.139333-0.004000j;
	 z21 0.139333-0.004000j;
	 z22 0.345333+0.341000j;
	 z23 0.139333-0.004000j;
	 z31 0.139333-0.004000j;
	 z32 0.139333-0.004000j;
	 z33 0.345333+0.341000j;
	 }

object line_configuration {
	 name underground_line_config_CN_108_108;
	 z11 0.345333+0.341000j;
	 z12 0.139333-0.004000j;
	 z13 0.139333-0.004000j;
	 z21 0.139333-0.004000j;
	 z22 0.345333+0.341000j;
	 z23 0.139333-0.004000j;
	 z31 0.139333-0.004000j;
	 z32 0.139333-0.004000j;
	 z33 0.345333+0.341000j;
	 }

object line_configuration {
	 name underground_line_config_CN_90_90;
	 z11 0.345667+1.151733j;
	 z12 0.159667+0.506133j;
	 z13 0.159667+0.506133j;
	 z21 0.159667+0.506133j;
	 z22 0.345667+1.151733j;
	 z23 0.159667+0.506133j;
	 z31 0.159667+0.506133j;
	 z32 0.159667+0.506133j;
	 z33 0.345667+1.151733j;
	 }

