SPU122_glm/output_current.csv
# output_current.csv run at 2019-05-07 15:52:00 PDT on 42 links
link_name,currA_mag,currA_angle,currB_mag,currB_angle,currC_mag,currC_angle
recloser_392-15406,181.243646,-0.242674,181.243645,3.946117,181.243642,1.851721
FUSEs_402-458138,0.000000,1.313958,0.000000,-0.540420,0.000000,3.926991
389-1190526-0,181.243646,-0.242674,181.243645,3.946117,181.243642,1.851721
389-1190690-0,181.243646,-0.242674,181.243645,3.946117,181.243642,1.851721
389-1190690-1,37.658431,1.569199,37.658431,-0.525196,37.658431,3.663594
389-3020482-0,37.658431,1.569199,37.658431,-0.525196,37.658431,3.663594
389-3020482-1,37.658431,1.569199,37.658431,-0.525196,37.658431,3.663594
389-3020482-2,0.000000,2.214591,0.000000,-0.049383,0.000000,-1.379115
389-549633-0,181.243646,-0.242674,181.243645,3.946117,181.243642,1.851721
389-802872-0,0.000000,0.000000,0.000000,0.000000,0.000000,0.000000
TIE-391-1731909,0.000000,-0.491943,0.000000,2.182437,0.000000,3.028903
TIE-391-559604,0.000000,2.108716,0.000000,-0.037991,0.000000,-1.431952
TIE-391-758992,0.000000,-1.384889,0.000000,-0.604338,0.000000,1.711657
UGSW-35524,0.000000,0.486730,0.000000,1.874714,0.000000,4.470579
UGSW-35526,0.000000,1.285980,0.000000,-0.282438,0.000000,0.176240
UGSW-37761,0.000000,4.442912,0.000000,0.327102,0.000000,2.318097
UGSW-37763,0.000000,3.934695,0.000000,-0.136282,0.000000,-1.060776
Regulator_416-14448,181.243646,-0.242674,181.243645,3.946117,181.243642,1.851721
394-806733,0.000000,2.278055,0.000000,0.000000,0.000000,0.000000
394-806735,0.000000,0.000000,0.000000,-0.035524,0.000000,0.000000
394-806737,0.000000,0.000000,0.000000,0.000000,0.000000,-1.279222
411-2150268-0,0.000000,0.178730,0.000000,0.000000,0.000000,0.000000
411-2150269-0,0.000000,0.000000,0.000000,1.839719,0.000000,0.000000
411-2150270-0,0.000000,0.000000,0.000000,0.000000,0.000000,2.833968
411-2162968-0,0.000000,0.000000,0.000000,0.000000,0.000000,3.217056
411-2162969-0,0.000000,0.000000,0.000000,-0.181390,0.000000,0.000000
411-2162970-0,0.000000,4.306775,0.000000,0.000000,0.000000,0.000000
411-732691-0,0.000000,2.236008,0.000000,0.000000,0.000000,0.000000
411-732695-0,0.000000,0.000000,0.000000,0.000000,0.000000,-1.239679
411-732698-0,0.000000,0.000000,0.000000,-0.054941,0.000000,0.000000
A-395-1373643,0.000000,4.472348,0.000000,0.000000,0.000000,0.000000
A-395-2135221,0.000000,3.933304,0.000000,0.000000,0.000000,0.000000
A-395-2135232,0.000000,0.791711,0.000000,0.000000,0.000000,0.000000
A-395-2147887,0.000000,4.074154,0.000000,0.000000,0.000000,0.000000
B-395-1373661,0.000000,0.000000,0.000000,-0.104344,0.000000,0.000000
B-395-2135223,0.000000,0.000000,0.000000,0.000000,0.000000,0.000000
B-395-2135234,0.000000,0.000000,0.000000,0.328064,0.000000,0.000000
B-395-2147889,0.000000,0.000000,0.000000,0.000000,0.000000,0.000000
C-395-1373663,0.000000,0.000000,0.000000,0.000000,0.000000,4.396952
C-395-2135225,0.000000,0.000000,0.000000,0.000000,0.000000,0.000000
C-395-2135236,0.000000,0.000000,0.000000,0.000000,0.000000,-0.779085
C-395-2147891,0.000000,0.000000,0.000000,0.000000,0.000000,0.000000
