SPU122_glm/output_voltage.csv
# output_voltage.csv run at 2019-05-07 15:52:00 PDT on 40 nodes
node_name,voltA_mag,voltA_angle,voltB_mag,voltB_angle,voltC_mag,voltC_angle
Cap_393-72996,7973.658097,-0.001597,7973.658098,4.187193,7973.658098,2.092798
Large_customer_389-1190690-0,7964.247918,-0.001257,7964.247919,4.187534,7964.247919,2.093139
LOAD_389-3020482-0,7973.529756,-0.001592,7973.529757,4.187198,7973.529757,2.092803
391-1731909,7973.658097,-0.001597,7973.658098,4.187193,7973.658098,2.092798
391-559604,7973.658097,-0.001597,7973.658098,4.187193,7973.658098,2.092798
391-758992,7973.658097,-0.001597,7973.658098,4.187193,7973.658098,2.092798
393-72996,7973.658097,-0.001597,7973.658098,4.187193,7973.658098,2.092798
395-1373643,7973.658097,-0.001597,0.000000,0.000000,0.000000,0.000000
395-1373661,0.000000,0.000000,7973.658098,4.187193,0.000000,0.000000
395-1373663,0.000000,0.000000,0.000000,0.000000,7973.658098,2.092798
395-2135221,7973.658097,-0.001597,0.000000,0.000000,0.000000,0.000000
395-2135223,0.000000,0.000000,7973.658098,4.187193,0.000000,0.000000
395-2135225,0.000000,0.000000,0.000000,0.000000,7973.658098,2.092798
395-2135232,7973.658097,-0.001597,0.000000,0.000000,0.000000,0.000000
395-2135234,0.000000,0.000000,7973.658098,4.187193,0.000000,0.000000
395-2135235,7973.658097,-0.001597,7973.658098,4.187193,7973.658098,2.092798
395-2135236,0.000000,0.000000,0.000000,0.000000,7973.658098,2.092798
395-2147887,7973.658097,-0.001597,0.000000,0.000000,0.000000,0.000000
395-2147889,0.000000,0.000000,7973.658098,4.187193,0.000000,0.000000
395-2147891,0.000000,0.000000,0.000000,0.000000,7973.658098,2.092798
395-2147902,7973.658097,-0.001597,7973.658098,4.187193,7973.658098,2.092798
395-756992,7973.658097,-0.001597,7973.658098,4.187193,7973.658098,2.092798
402-458138,7973.658097,-0.001597,7973.658098,4.187193,7973.658098,2.092798
403-288844,0.000000,0.000000,7973.529757,4.187198,0.000000,0.000000
403-474442,7967.570286,-0.000532,7967.570286,4.188258,7967.570286,2.093863
403-474444,7964.453074,-0.001264,7964.453075,4.187526,7964.453075,2.093131
406-1064707,7964.247918,-0.001257,7964.247919,4.187534,7964.247919,2.093139
416-14448,7969.762964,-0.000055,7969.762964,4.188736,7969.762964,2.094341
500-230142,7973.529756,-0.001592,7973.529757,4.187198,7973.529757,2.092803
500-635149,7973.658097,-0.001597,0.000000,0.000000,0.000000,0.000000
500-635151,0.000000,0.000000,7973.658098,4.187193,0.000000,0.000000
500-635153,0.000000,0.000000,0.000000,0.000000,7973.658098,2.092798
MID-395-1373661,7973.658097,-0.001597,7973.658098,4.187193,7973.658098,2.092798
MID-395-2135223,7973.658097,-0.001597,7973.658098,4.187193,7973.658098,2.092798
MID-395-2135234,7973.658097,-0.001597,7973.658098,4.187193,7973.658098,2.092798
MID-395-2147889,7973.658097,-0.001597,7973.658098,4.187193,7973.658098,2.092798
SPU122,7970.000000,0.000000,7970.000000,4.188790,7970.000000,2.094395
Breaker_416-14448,7969.993381,0.000001,7969.993381,4.188792,7969.993381,2.094396
Fuse_402-458138,7973.658097,-0.001597,7973.658098,4.187193,7973.658098,2.092798
Reg_SPU122,7969.975788,0.000002,7969.975788,4.188792,7969.975788,2.094397
